@<TRIPOS>MOLECULE
*****
 12 12 0 0 0
SMALL
GASTEIGER

@<TRIPOS>ATOM
      1 C           0.8077   -1.1370    0.0184 C.ar    1  UNL1       -0.0618
      2 C           1.3887    0.1309   -0.0046 C.ar    1  UNL1       -0.0618
      3 C           0.5809    1.2679   -0.0231 C.ar    1  UNL1       -0.0618
      4 C          -0.8077    1.1370   -0.0184 C.ar    1  UNL1       -0.0618
      5 C          -1.3887   -0.1309    0.0046 C.ar    1  UNL1       -0.0618
      6 C          -0.5809   -1.2679    0.0231 C.ar    1  UNL1       -0.0618
      7 H           1.4370   -2.0229    0.0328 H       1  UNL1        0.0618
      8 H           2.4706    0.2328   -0.0082 H       1  UNL1        0.0618
      9 H           1.0336    2.2557   -0.0410 H       1  UNL1        0.0618
     10 H          -1.4370    2.0229   -0.0328 H       1  UNL1        0.0618
     11 H          -2.4706   -0.2328    0.0082 H       1  UNL1        0.0618
     12 H          -1.0336   -2.2557    0.0410 H       1  UNL1        0.0618
@<TRIPOS>BOND
     1     1     2   ar
     2     2     3   ar
     3     3     4   ar
     4     4     5   ar
     5     5     6   ar
     6     6     1   ar
     7     1     7    1
     8     2     8    1
     9     3     9    1
    10     4    10    1
    11     5    11    1
    12     6    12    1
