REMARK  Name = 
REMARK  0 active torsions:
REMARK  status: ('A' for Active; 'I' for Inactive)
REMARK                            x       y       z     vdW  Elec       q    Type
REMARK                         _______ _______ _______ _____ _____    ______ ____
ROOT
ATOM      1  C   UNL     1       0.808  -1.137   0.018  0.00  0.00    +0.000 A 
ATOM      2  C   UNL     1       1.389   0.131  -0.005  0.00  0.00    +0.000 A 
ATOM      3  C   UNL     1       0.581   1.268  -0.023  0.00  0.00    +0.000 A 
ATOM      4  C   UNL     1      -0.808   1.137  -0.018  0.00  0.00    +0.000 A 
ATOM      5  C   UNL     1      -1.389  -0.131   0.005  0.00  0.00    +0.000 A 
ATOM      6  C   UNL     1      -0.581  -1.268   0.023  0.00  0.00    +0.000 A 
ENDROOT
TORSDOF 0
